data_image0
_cell_length_a       14.5085
_cell_length_b       18.9168
_cell_length_c       62.5247
_cell_angle_alpha    90
_cell_angle_beta     90
_cell_angle_gamma    85.6013

_symmetry_space_group_name_H-M    "P 1"
_symmetry_int_tables_number       1

loop_
  _symmetry_equiv_pos_as_xyz
  'x, y, z'

loop_
  _atom_site_label
  _atom_site_occupancy
  _atom_site_fract_x
  _atom_site_fract_y
  _atom_site_fract_z
  _atom_site_thermal_displace_type
  _atom_site_B_iso_or_equiv
  _atom_site_type_symbol
  Co1      1.0000 0.31630  0.69493  0.13446  Biso   1.000  Co
  Co2      1.0000 0.31630  0.76340  0.07177  Biso   1.000  Co
  Co3      1.0000 0.43370  0.86160  0.07177  Biso   1.000  Co
  Co4      1.0000 0.43370  0.52827  0.07177  Biso   1.000  Co
  Co5      1.0000 0.43370  0.26340  0.25985  Biso   1.000  Co
  Co6      1.0000 0.43370  0.93007  0.25985  Biso   1.000  Co
  Co7      1.0000 0.43370  0.59673  0.25985  Biso   1.000  Co
  Co8      1.0000 0.31630  0.09673  0.07177  Biso   1.000  Co
  Co9      1.0000 0.31630  0.36160  0.25985  Biso   1.000  Co
  Co10     1.0000 0.31630  0.69493  0.25985  Biso   1.000  Co
  Co11     1.0000 0.81630  0.43007  0.25985  Biso   1.000  Co
  Co12     1.0000 0.81630  0.09673  0.25985  Biso   1.000  Co
  Co13     1.0000 0.81630  0.76340  0.25985  Biso   1.000  Co
  Co14     1.0000 0.93370  0.19493  0.25985  Biso   1.000  Co
  Co15     1.0000 0.93370  0.86160  0.25985  Biso   1.000  Co
  Co16     1.0000 0.31630  0.02827  0.25985  Biso   1.000  Co
  Co17     1.0000 0.31630  0.43007  0.07177  Biso   1.000  Co
  Co18     1.0000 0.81630  0.69493  0.07177  Biso   1.000  Co
  Co19     1.0000 0.81630  0.02827  0.07177  Biso   1.000  Co
  Co20     1.0000 0.43370  0.26340  0.13446  Biso   1.000  Co
  Co21     1.0000 0.43370  0.93007  0.13446  Biso   1.000  Co
  Co22     1.0000 0.43370  0.59673  0.13446  Biso   1.000  Co
  Co23     1.0000 0.31630  0.36160  0.13446  Biso   1.000  Co
  Co24     1.0000 0.31630  0.02827  0.13446  Biso   1.000  Co
  Co25     1.0000 0.81630  0.43007  0.13446  Biso   1.000  Co
  Co26     1.0000 0.81630  0.09673  0.13446  Biso   1.000  Co
  Co27     1.0000 0.81630  0.76340  0.13446  Biso   1.000  Co
  Co28     1.0000 0.93370  0.19493  0.13446  Biso   1.000  Co
  Co29     1.0000 0.93370  0.86160  0.13446  Biso   1.000  Co
  Co30     1.0000 0.93370  0.52827  0.13446  Biso   1.000  Co
  Co31     1.0000 0.93370  0.26340  0.07177  Biso   1.000  Co
  Co32     1.0000 0.93370  0.93007  0.07177  Biso   1.000  Co
  Co33     1.0000 0.93370  0.59673  0.07177  Biso   1.000  Co
  Co34     1.0000 0.81630  0.36160  0.07177  Biso   1.000  Co
  Co35     1.0000 0.93370  0.52827  0.25985  Biso   1.000  Co
  Co36     1.0000 0.93370  0.26340  0.19716  Biso   1.000  Co
  Co37     1.0000 0.43370  0.19493  0.07177  Biso   1.000  Co
  Co38     1.0000 0.93370  0.59673  0.19716  Biso   1.000  Co
  Co39     1.0000 0.93370  0.19493  0.38524  Biso   1.000  Co
  Co40     1.0000 0.93370  0.86160  0.38524  Biso   1.000  Co
  Co41     1.0000 0.93370  0.52827  0.38524  Biso   1.000  Co
  Co42     1.0000 0.93370  0.26340  0.32255  Biso   1.000  Co
  Co43     1.0000 0.93370  0.93007  0.32255  Biso   1.000  Co
  Co44     1.0000 0.93370  0.59673  0.32255  Biso   1.000  Co
  Co45     1.0000 0.81630  0.36160  0.32255  Biso   1.000  Co
  Co46     1.0000 0.81630  0.02827  0.32255  Biso   1.000  Co
  Co47     1.0000 0.81630  0.69493  0.32255  Biso   1.000  Co
  Co48     1.0000 0.31630  0.43007  0.32255  Biso   1.000  Co
  Co49     1.0000 0.31630  0.09673  0.32255  Biso   1.000  Co
  Co50     1.0000 0.93370  0.93007  0.19716  Biso   1.000  Co
  Co51     1.0000 0.43370  0.19493  0.32255  Biso   1.000  Co
  Co52     1.0000 0.43370  0.86160  0.32255  Biso   1.000  Co
  Co53     1.0000 0.43370  0.52827  0.32255  Biso   1.000  Co
  Co54     1.0000 0.81630  0.76340  0.38524  Biso   1.000  Co
  Co55     1.0000 0.81630  0.09673  0.38524  Biso   1.000  Co
  Co56     1.0000 0.31630  0.76340  0.32255  Biso   1.000  Co
  Co57     1.0000 0.31630  0.69493  0.38524  Biso   1.000  Co
  Co58     1.0000 0.81630  0.43007  0.38524  Biso   1.000  Co
  Co59     1.0000 0.81630  0.36160  0.19716  Biso   1.000  Co
  Co60     1.0000 0.81630  0.02827  0.19716  Biso   1.000  Co
  Co61     1.0000 0.31630  0.43007  0.19716  Biso   1.000  Co
  Co62     1.0000 0.31630  0.09673  0.19716  Biso   1.000  Co
  Co63     1.0000 0.31630  0.76340  0.19716  Biso   1.000  Co
  Co64     1.0000 0.43370  0.19493  0.19716  Biso   1.000  Co
  Co65     1.0000 0.81630  0.69493  0.19716  Biso   1.000  Co
  Co66     1.0000 0.43370  0.52827  0.19716  Biso   1.000  Co
  Co67     1.0000 0.43370  0.26340  0.38524  Biso   1.000  Co
  Co68     1.0000 0.43370  0.93007  0.38524  Biso   1.000  Co
  Co69     1.0000 0.43370  0.59673  0.38524  Biso   1.000  Co
  Co70     1.0000 0.31630  0.36160  0.38524  Biso   1.000  Co
  Co71     1.0000 0.31630  0.02827  0.38524  Biso   1.000  Co
  Co72     1.0000 0.43370  0.86160  0.19716  Biso   1.000  Co
  Ga1      1.0000 0.10577  0.86538  0.59585  Biso   1.000  Ga
  Ga2      1.0000 0.02885  0.63462  0.59585  Biso   1.000  Ga
  Ga3      1.0000 0.95192  0.40385  0.59585  Biso   1.000  Ga
  Ga4      1.0000 0.87500  0.17308  0.59585  Biso   1.000  Ga
  Ga5      1.0000 0.79808  0.94231  0.59585  Biso   1.000  Ga
  Ga6      1.0000 0.56731  0.25000  0.66919  Biso   1.000  Ga
  Ga7      1.0000 0.64423  0.48077  0.59585  Biso   1.000  Ga
  Ga8      1.0000 0.49038  0.01923  0.66919  Biso   1.000  Ga
  Ga9      1.0000 0.41346  0.78846  0.66919  Biso   1.000  Ga
  Ga10     1.0000 0.25962  0.32692  0.66919  Biso   1.000  Ga
  Ga11     1.0000 0.18269  0.09615  0.59585  Biso   1.000  Ga
  Ga12     1.0000 0.33654  0.55769  0.66919  Biso   1.000  Ga
  Ga13     1.0000 0.72115  0.71154  0.59585  Biso   1.000  Ga
  Ga14     1.0000 0.25962  0.32692  0.59585  Biso   1.000  Ga
  Ga15     1.0000 0.87500  0.17308  0.52251  Biso   1.000  Ga
  Ga16     1.0000 0.41346  0.78846  0.59585  Biso   1.000  Ga
  Ga17     1.0000 0.49038  0.01923  0.59585  Biso   1.000  Ga
  Ga18     1.0000 0.56731  0.25000  0.59585  Biso   1.000  Ga
  Ga19     1.0000 0.64423  0.48077  0.52251  Biso   1.000  Ga
  Ga20     1.0000 0.72115  0.71154  0.52251  Biso   1.000  Ga
  Ga21     1.0000 0.79808  0.94231  0.52251  Biso   1.000  Ga
  Ga22     1.0000 0.95192  0.40385  0.52251  Biso   1.000  Ga
  Ga23     1.0000 0.02885  0.63462  0.52251  Biso   1.000  Ga
  Ga24     1.0000 0.60577  0.36538  0.48584  Biso   1.000  Ga
  Ga25     1.0000 0.52885  0.13462  0.48584  Biso   1.000  Ga
  Ga26     1.0000 0.45192  0.90385  0.48584  Biso   1.000  Ga
  Ga27     1.0000 0.37500  0.67308  0.48584  Biso   1.000  Ga
  Ga28     1.0000 0.29808  0.44231  0.48584  Biso   1.000  Ga
  Ga29     1.0000 0.18269  0.09615  0.66919  Biso   1.000  Ga
  Ga30     1.0000 0.33654  0.55769  0.59585  Biso   1.000  Ga
  Ga31     1.0000 0.10577  0.86538  0.66919  Biso   1.000  Ga
  Ga32     1.0000 0.45192  0.40385  0.59585  Biso   1.000  Ga
  Ga33     1.0000 0.95192  0.40385  0.66919  Biso   1.000  Ga
  Ga34     1.0000 0.22115  0.21154  0.48584  Biso   1.000  Ga
  Ga35     1.0000 0.79808  0.94231  0.81587  Biso   1.000  Ga
  Ga36     1.0000 0.87500  0.17308  0.81587  Biso   1.000  Ga
  Ga37     1.0000 0.95192  0.40385  0.81587  Biso   1.000  Ga
  Ga38     1.0000 0.02885  0.63462  0.81587  Biso   1.000  Ga
  Ga39     1.0000 0.10577  0.86538  0.81587  Biso   1.000  Ga
  Ga40     1.0000 0.18269  0.09615  0.81587  Biso   1.000  Ga
  Ga41     1.0000 0.25962  0.32692  0.81587  Biso   1.000  Ga
  Ga42     1.0000 0.33654  0.55769  0.81587  Biso   1.000  Ga
  Ga43     1.0000 0.41346  0.78846  0.81587  Biso   1.000  Ga
  Ga44     1.0000 0.49038  0.01923  0.81587  Biso   1.000  Ga
  Ga45     1.0000 0.56731  0.25000  0.81587  Biso   1.000  Ga
  Ga46     1.0000 0.64423  0.48077  0.74253  Biso   1.000  Ga
  Ga47     1.0000 0.72115  0.71154  0.74253  Biso   1.000  Ga
  Ga48     1.0000 0.79808  0.94231  0.74253  Biso   1.000  Ga
  Ga49     1.0000 0.87500  0.17308  0.74253  Biso   1.000  Ga
  Ga50     1.0000 0.95192  0.40385  0.74253  Biso   1.000  Ga
  Ga51     1.0000 0.02885  0.63462  0.74253  Biso   1.000  Ga
  Ga52     1.0000 0.10577  0.86538  0.74253  Biso   1.000  Ga
  Ga53     1.0000 0.18269  0.09615  0.74253  Biso   1.000  Ga
  Ga54     1.0000 0.25962  0.32692  0.74253  Biso   1.000  Ga
  Ga55     1.0000 0.33654  0.55769  0.74253  Biso   1.000  Ga
  Ga56     1.0000 0.41346  0.78846  0.74253  Biso   1.000  Ga
  Ga57     1.0000 0.49038  0.01923  0.74253  Biso   1.000  Ga
  Ga58     1.0000 0.56731  0.25000  0.74253  Biso   1.000  Ga
  Ga59     1.0000 0.64423  0.48077  0.66919  Biso   1.000  Ga
  Ga60     1.0000 0.72115  0.71154  0.66919  Biso   1.000  Ga
  Ga61     1.0000 0.79808  0.94231  0.66919  Biso   1.000  Ga
  Ga62     1.0000 0.87500  0.17308  0.66919  Biso   1.000  Ga
  Ga63     1.0000 0.02885  0.63462  0.66919  Biso   1.000  Ga
  Ga64     1.0000 0.14423  0.98077  0.48584  Biso   1.000  Ga
  Ga65     1.0000 0.37500  0.67308  0.70586  Biso   1.000  Ga
  Ga66     1.0000 0.99038  0.51923  0.48584  Biso   1.000  Ga
  Ga67     1.0000 0.72115  0.71154  0.81587  Biso   1.000  Ga
  Ga68     1.0000 0.29808  0.44231  0.70586  Biso   1.000  Ga
  Ga69     1.0000 0.22115  0.21154  0.70586  Biso   1.000  Ga
  Ga70     1.0000 0.14423  0.98077  0.70586  Biso   1.000  Ga
  Ga71     1.0000 0.06731  0.75000  0.70586  Biso   1.000  Ga
  Ga72     1.0000 0.99038  0.51923  0.70586  Biso   1.000  Ga
  Ga73     1.0000 0.91346  0.28846  0.70586  Biso   1.000  Ga
  Ga74     1.0000 0.83654  0.05769  0.70586  Biso   1.000  Ga
  Ga75     1.0000 0.75962  0.82692  0.70586  Biso   1.000  Ga
  Ga76     1.0000 0.68269  0.59615  0.70586  Biso   1.000  Ga
  Ga77     1.0000 0.60577  0.36538  0.77920  Biso   1.000  Ga
  Ga78     1.0000 0.52885  0.13462  0.77920  Biso   1.000  Ga
  Ga79     1.0000 0.45192  0.90385  0.77920  Biso   1.000  Ga
  Ga80     1.0000 0.45192  0.90385  0.70586  Biso   1.000  Ga
  Ga81     1.0000 0.37500  0.67308  0.77920  Biso   1.000  Ga
  Ga82     1.0000 0.22115  0.21154  0.77920  Biso   1.000  Ga
  Ga83     1.0000 0.14423  0.98077  0.77920  Biso   1.000  Ga
  Ga84     1.0000 0.06731  0.75000  0.77920  Biso   1.000  Ga
  Ga85     1.0000 0.99038  0.51923  0.77920  Biso   1.000  Ga
  Ga86     1.0000 0.91346  0.28846  0.77920  Biso   1.000  Ga
  Ga87     1.0000 0.83654  0.05769  0.77920  Biso   1.000  Ga
  Ga88     1.0000 0.75962  0.82692  0.77920  Biso   1.000  Ga
  Ga89     1.0000 0.68269  0.59615  0.77920  Biso   1.000  Ga
  Ga90     1.0000 0.56731  0.25000  0.52251  Biso   1.000  Ga
  Ga91     1.0000 0.49038  0.01923  0.52251  Biso   1.000  Ga
  Ga92     1.0000 0.41346  0.78846  0.52251  Biso   1.000  Ga
  Ga93     1.0000 0.33654  0.55769  0.52251  Biso   1.000  Ga
  Ga94     1.0000 0.25962  0.32692  0.52251  Biso   1.000  Ga
  Ga95     1.0000 0.29808  0.44231  0.77920  Biso   1.000  Ga
  Ga96     1.0000 0.52885  0.13462  0.70586  Biso   1.000  Ga
  Ga97     1.0000 0.60577  0.36538  0.70586  Biso   1.000  Ga
  Ga98     1.0000 0.68269  0.59615  0.63252  Biso   1.000  Ga
  Ga99     1.0000 0.91346  0.28846  0.48584  Biso   1.000  Ga
  Ga100    1.0000 0.83654  0.05769  0.48584  Biso   1.000  Ga
  Ga101    1.0000 0.75962  0.82692  0.48584  Biso   1.000  Ga
  Ga102    1.0000 0.68269  0.59615  0.48584  Biso   1.000  Ga
  Ga103    1.0000 0.60577  0.36538  0.55918  Biso   1.000  Ga
  Ga104    1.0000 0.52885  0.13462  0.55918  Biso   1.000  Ga
  Ga105    1.0000 0.45192  0.90385  0.55918  Biso   1.000  Ga
  Ga106    1.0000 0.37500  0.67308  0.55918  Biso   1.000  Ga
  Ga107    1.0000 0.29808  0.44231  0.55918  Biso   1.000  Ga
  Ga108    1.0000 0.22115  0.21154  0.55918  Biso   1.000  Ga
  Ga109    1.0000 0.14423  0.98077  0.55918  Biso   1.000  Ga
  Ga110    1.0000 0.06731  0.75000  0.55918  Biso   1.000  Ga
  Ga111    1.0000 0.99038  0.51923  0.55918  Biso   1.000  Ga
  Ga112    1.0000 0.91346  0.28846  0.55918  Biso   1.000  Ga
  Ga113    1.0000 0.83654  0.05769  0.55918  Biso   1.000  Ga
  Ga114    1.0000 0.75962  0.82692  0.55918  Biso   1.000  Ga
  Ga115    1.0000 0.68269  0.59615  0.55918  Biso   1.000  Ga
  Ga116    1.0000 0.60577  0.36538  0.63252  Biso   1.000  Ga
  Ga117    1.0000 0.52885  0.13462  0.63252  Biso   1.000  Ga
  Ga118    1.0000 0.45192  0.90385  0.63252  Biso   1.000  Ga
  Ga119    1.0000 0.37500  0.67308  0.63252  Biso   1.000  Ga
  Ga120    1.0000 0.29808  0.44231  0.63252  Biso   1.000  Ga
  Ga121    1.0000 0.22115  0.21154  0.63252  Biso   1.000  Ga
  Ga122    1.0000 0.14423  0.98077  0.63252  Biso   1.000  Ga
  Ga123    1.0000 0.06731  0.75000  0.63252  Biso   1.000  Ga
  Ga124    1.0000 0.99038  0.51923  0.63252  Biso   1.000  Ga
  Ga125    1.0000 0.91346  0.28846  0.63252  Biso   1.000  Ga
  Ga126    1.0000 0.83654  0.05769  0.63252  Biso   1.000  Ga
  Ga127    1.0000 0.75962  0.82692  0.63252  Biso   1.000  Ga
  Ga128    1.0000 0.06731  0.75000  0.48584  Biso   1.000  Ga
  Ga129    1.0000 0.64423  0.48077  0.81587  Biso   1.000  Ga
  Ga130    1.0000 0.60577  0.86538  0.66919  Biso   1.000  Ga
  Ga131    1.0000 0.37500  0.17308  0.52251  Biso   1.000  Ga
  Ga132    1.0000 0.02885  0.13462  0.63252  Biso   1.000  Ga
  Ga133    1.0000 0.10577  0.36538  0.63252  Biso   1.000  Ga
  Ga134    1.0000 0.18269  0.59615  0.63252  Biso   1.000  Ga
  Ga135    1.0000 0.25962  0.82692  0.63252  Biso   1.000  Ga
  Ga136    1.0000 0.33654  0.05769  0.63252  Biso   1.000  Ga
  Ga137    1.0000 0.41346  0.28846  0.63252  Biso   1.000  Ga
  Ga138    1.0000 0.49038  0.51923  0.55918  Biso   1.000  Ga
  Ga139    1.0000 0.56731  0.75000  0.55918  Biso   1.000  Ga
  Ga140    1.0000 0.64423  0.98077  0.55918  Biso   1.000  Ga
  Ga141    1.0000 0.72115  0.21154  0.55918  Biso   1.000  Ga
  Ga142    1.0000 0.79808  0.44231  0.55918  Biso   1.000  Ga
  Ga143    1.0000 0.87500  0.67308  0.55918  Biso   1.000  Ga
  Ga144    1.0000 0.95192  0.90385  0.55918  Biso   1.000  Ga
  Ga145    1.0000 0.95192  0.90385  0.63252  Biso   1.000  Ga
  Ga146    1.0000 0.02885  0.13462  0.55918  Biso   1.000  Ga
  Ga147    1.0000 0.18269  0.59615  0.55918  Biso   1.000  Ga
  Ga148    1.0000 0.25962  0.82692  0.55918  Biso   1.000  Ga
  Ga149    1.0000 0.33654  0.05769  0.55918  Biso   1.000  Ga
  Ga150    1.0000 0.41346  0.28846  0.55918  Biso   1.000  Ga
  Ga151    1.0000 0.49038  0.51923  0.48584  Biso   1.000  Ga
  Ga152    1.0000 0.56731  0.75000  0.48584  Biso   1.000  Ga
  Ga153    1.0000 0.64423  0.98077  0.48584  Biso   1.000  Ga
  Ga154    1.0000 0.72115  0.21154  0.48584  Biso   1.000  Ga
  Ga155    1.0000 0.79808  0.44231  0.48584  Biso   1.000  Ga
  Ga156    1.0000 0.87500  0.67308  0.48584  Biso   1.000  Ga
  Ga157    1.0000 0.95192  0.90385  0.48584  Biso   1.000  Ga
  Ga158    1.0000 0.02885  0.13462  0.48584  Biso   1.000  Ga
  Ga159    1.0000 0.10577  0.36538  0.48584  Biso   1.000  Ga
  Ga160    1.0000 0.10577  0.36538  0.55918  Biso   1.000  Ga
  Ga161    1.0000 0.87500  0.67308  0.63252  Biso   1.000  Ga
  Ga162    1.0000 0.79808  0.44231  0.63252  Biso   1.000  Ga
  Ga163    1.0000 0.72115  0.21154  0.63252  Biso   1.000  Ga
  Ga164    1.0000 0.49038  0.51923  0.77920  Biso   1.000  Ga
  Ga165    1.0000 0.56731  0.75000  0.77920  Biso   1.000  Ga
  Ga166    1.0000 0.64423  0.98077  0.77920  Biso   1.000  Ga
  Ga167    1.0000 0.72115  0.21154  0.77920  Biso   1.000  Ga
  Ga168    1.0000 0.79808  0.44231  0.77920  Biso   1.000  Ga
  Ga169    1.0000 0.87500  0.67308  0.77920  Biso   1.000  Ga
  Ga170    1.0000 0.95192  0.90385  0.77920  Biso   1.000  Ga
  Ga171    1.0000 0.02885  0.13462  0.77920  Biso   1.000  Ga
  Ga172    1.0000 0.10577  0.36538  0.77920  Biso   1.000  Ga
  Ga173    1.0000 0.18269  0.59615  0.77920  Biso   1.000  Ga
  Ga174    1.0000 0.25962  0.82692  0.77920  Biso   1.000  Ga
  Ga175    1.0000 0.33654  0.05769  0.77920  Biso   1.000  Ga
  Ga176    1.0000 0.41346  0.28846  0.77920  Biso   1.000  Ga
  Ga177    1.0000 0.49038  0.51923  0.70586  Biso   1.000  Ga
  Ga178    1.0000 0.56731  0.75000  0.70586  Biso   1.000  Ga
  Ga179    1.0000 0.64423  0.98077  0.70586  Biso   1.000  Ga
  Ga180    1.0000 0.72115  0.21154  0.70586  Biso   1.000  Ga
  Ga181    1.0000 0.79808  0.44231  0.70586  Biso   1.000  Ga
  Ga182    1.0000 0.87500  0.67308  0.70586  Biso   1.000  Ga
  Ga183    1.0000 0.95192  0.90385  0.70586  Biso   1.000  Ga
  Ga184    1.0000 0.02885  0.13462  0.70586  Biso   1.000  Ga
  Ga185    1.0000 0.10577  0.36538  0.70586  Biso   1.000  Ga
  Ga186    1.0000 0.18269  0.59615  0.70586  Biso   1.000  Ga
  Ga187    1.0000 0.25962  0.82692  0.70586  Biso   1.000  Ga
  Ga188    1.0000 0.33654  0.05769  0.70586  Biso   1.000  Ga
  Ga189    1.0000 0.41346  0.28846  0.70586  Biso   1.000  Ga
  Ga190    1.0000 0.49038  0.51923  0.63252  Biso   1.000  Ga
  Ga191    1.0000 0.56731  0.75000  0.63252  Biso   1.000  Ga
  Ga192    1.0000 0.64423  0.98077  0.63252  Biso   1.000  Ga
  Ga193    1.0000 0.18269  0.59615  0.48584  Biso   1.000  Ga
  Ga194    1.0000 0.25962  0.82692  0.48584  Biso   1.000  Ga
  Ga195    1.0000 0.33654  0.05769  0.48584  Biso   1.000  Ga
  Ga196    1.0000 0.41346  0.28846  0.48584  Biso   1.000  Ga
  Ga197    1.0000 0.06731  0.25000  0.66919  Biso   1.000  Ga
  Ga198    1.0000 0.14423  0.48077  0.66919  Biso   1.000  Ga
  Ga199    1.0000 0.22115  0.71154  0.66919  Biso   1.000  Ga
  Ga200    1.0000 0.29808  0.94231  0.66919  Biso   1.000  Ga
  Ga201    1.0000 0.37500  0.17308  0.66919  Biso   1.000  Ga
  Ga202    1.0000 0.45192  0.40385  0.66919  Biso   1.000  Ga
  Ga203    1.0000 0.52885  0.63462  0.59585  Biso   1.000  Ga
  Ga204    1.0000 0.60577  0.86538  0.59585  Biso   1.000  Ga
  Ga205    1.0000 0.68269  0.09615  0.59585  Biso   1.000  Ga
  Ga206    1.0000 0.75962  0.32692  0.59585  Biso   1.000  Ga
  Ga207    1.0000 0.83654  0.55769  0.59585  Biso   1.000  Ga
  Ga208    1.0000 0.91346  0.78846  0.59585  Biso   1.000  Ga
  Ga209    1.0000 0.99038  0.01923  0.59585  Biso   1.000  Ga
  Ga210    1.0000 0.06731  0.25000  0.59585  Biso   1.000  Ga
  Ga211    1.0000 0.14423  0.48077  0.59585  Biso   1.000  Ga
  Ga212    1.0000 0.22115  0.71154  0.59585  Biso   1.000  Ga
  Ga213    1.0000 0.29808  0.94231  0.59585  Biso   1.000  Ga
  Ga214    1.0000 0.37500  0.17308  0.59585  Biso   1.000  Ga
  Ga215    1.0000 0.52885  0.63462  0.52251  Biso   1.000  Ga
  Ga216    1.0000 0.60577  0.86538  0.52251  Biso   1.000  Ga
  Ga217    1.0000 0.68269  0.09615  0.52251  Biso   1.000  Ga
  Ga218    1.0000 0.75962  0.32692  0.52251  Biso   1.000  Ga
  Ga219    1.0000 0.83654  0.55769  0.52251  Biso   1.000  Ga
  Ga220    1.0000 0.91346  0.78846  0.52251  Biso   1.000  Ga
  Ga221    1.0000 0.99038  0.01923  0.52251  Biso   1.000  Ga
  Ga222    1.0000 0.06731  0.25000  0.52251  Biso   1.000  Ga
  Ga223    1.0000 0.14423  0.48077  0.52251  Biso   1.000  Ga
  Ga224    1.0000 0.22115  0.71154  0.52251  Biso   1.000  Ga
  Ga225    1.0000 0.29808  0.94231  0.52251  Biso   1.000  Ga
  Ga226    1.0000 0.99038  0.01923  0.66919  Biso   1.000  Ga
  Ga227    1.0000 0.45192  0.40385  0.52251  Biso   1.000  Ga
  Ga228    1.0000 0.91346  0.78846  0.66919  Biso   1.000  Ga
  Ga229    1.0000 0.75962  0.32692  0.66919  Biso   1.000  Ga
  Ga230    1.0000 0.52885  0.63462  0.81587  Biso   1.000  Ga
  Ga231    1.0000 0.60577  0.86538  0.81587  Biso   1.000  Ga
  Ga232    1.0000 0.68269  0.09615  0.81587  Biso   1.000  Ga
  Ga233    1.0000 0.75962  0.32692  0.81587  Biso   1.000  Ga
  Ga234    1.0000 0.83654  0.55769  0.81587  Biso   1.000  Ga
  Ga235    1.0000 0.91346  0.78846  0.81587  Biso   1.000  Ga
  Ga236    1.0000 0.99038  0.01923  0.81587  Biso   1.000  Ga
  Ga237    1.0000 0.06731  0.25000  0.81587  Biso   1.000  Ga
  Ga238    1.0000 0.14423  0.48077  0.81587  Biso   1.000  Ga
  Ga239    1.0000 0.22115  0.71154  0.81587  Biso   1.000  Ga
  Ga240    1.0000 0.29808  0.94231  0.81587  Biso   1.000  Ga
  Ga241    1.0000 0.37500  0.17308  0.81587  Biso   1.000  Ga
  Ga242    1.0000 0.45192  0.40385  0.81587  Biso   1.000  Ga
  Ga243    1.0000 0.52885  0.63462  0.74253  Biso   1.000  Ga
  Ga244    1.0000 0.60577  0.86538  0.74253  Biso   1.000  Ga
  Ga245    1.0000 0.68269  0.09615  0.74253  Biso   1.000  Ga
  Ga246    1.0000 0.75962  0.32692  0.74253  Biso   1.000  Ga
  Ga247    1.0000 0.83654  0.55769  0.74253  Biso   1.000  Ga
  Ga248    1.0000 0.91346  0.78846  0.74253  Biso   1.000  Ga
  Ga249    1.0000 0.99038  0.01923  0.74253  Biso   1.000  Ga
  Ga250    1.0000 0.06731  0.25000  0.74253  Biso   1.000  Ga
  Ga251    1.0000 0.14423  0.48077  0.74253  Biso   1.000  Ga
  Ga252    1.0000 0.22115  0.71154  0.74253  Biso   1.000  Ga
  Ga253    1.0000 0.29808  0.94231  0.74253  Biso   1.000  Ga
  Ga254    1.0000 0.37500  0.17308  0.74253  Biso   1.000  Ga
  Ga255    1.0000 0.45192  0.40385  0.74253  Biso   1.000  Ga
  Ga256    1.0000 0.52885  0.63462  0.66919  Biso   1.000  Ga
  Ga257    1.0000 0.18269  0.09615  0.52251  Biso   1.000  Ga
  Ga258    1.0000 0.68269  0.09615  0.66919  Biso   1.000  Ga
  Ga259    1.0000 0.83654  0.55769  0.66919  Biso   1.000  Ga
  Ga260    1.0000 0.10577  0.86538  0.52251  Biso   1.000  Ga
  N1       1.0000 0.50962  0.32692  0.50417  Biso   1.000  N 
  N2       1.0000 0.62500  0.67308  0.76087  Biso   1.000  N 
  N3       1.0000 0.16346  0.78846  0.65085  Biso   1.000  N 
  N4       1.0000 0.24038  0.01923  0.65085  Biso   1.000  N 
  N5       1.0000 0.31731  0.25000  0.65085  Biso   1.000  N 
  N6       1.0000 0.39423  0.48077  0.57751  Biso   1.000  N 
  N7       1.0000 0.47115  0.71154  0.57751  Biso   1.000  N 
  N8       1.0000 0.54808  0.94231  0.57751  Biso   1.000  N 
  N9       1.0000 0.62500  0.17308  0.57751  Biso   1.000  N 
  N10      1.0000 0.70192  0.40385  0.57751  Biso   1.000  N 
  N11      1.0000 0.77885  0.63462  0.57751  Biso   1.000  N 
  N12      1.0000 0.85577  0.86538  0.57751  Biso   1.000  N 
  N13      1.0000 0.93269  0.09615  0.57751  Biso   1.000  N 
  N14      1.0000 0.00962  0.32692  0.57751  Biso   1.000  N 
  N15      1.0000 0.08654  0.55769  0.57751  Biso   1.000  N 
  N16      1.0000 0.08654  0.55769  0.65085  Biso   1.000  N 
  N17      1.0000 0.16346  0.78846  0.57751  Biso   1.000  N 
  N18      1.0000 0.31731  0.25000  0.57751  Biso   1.000  N 
  N19      1.0000 0.39423  0.48077  0.50417  Biso   1.000  N 
  N20      1.0000 0.47115  0.71154  0.50417  Biso   1.000  N 
  N21      1.0000 0.54808  0.94231  0.50417  Biso   1.000  N 
  N22      1.0000 0.62500  0.17308  0.50417  Biso   1.000  N 
  N23      1.0000 0.70192  0.40385  0.50417  Biso   1.000  N 
  N24      1.0000 0.66346  0.78846  0.57751  Biso   1.000  N 
  N25      1.0000 0.74038  0.01923  0.57751  Biso   1.000  N 
  N26      1.0000 0.77885  0.63462  0.50417  Biso   1.000  N 
  N27      1.0000 0.85577  0.86538  0.50417  Biso   1.000  N 
  N28      1.0000 0.93269  0.09615  0.50417  Biso   1.000  N 
  N29      1.0000 0.00962  0.32692  0.50417  Biso   1.000  N 
  N30      1.0000 0.08654  0.55769  0.50417  Biso   1.000  N 
  N31      1.0000 0.24038  0.01923  0.57751  Biso   1.000  N 
  N32      1.0000 0.00962  0.32692  0.65085  Biso   1.000  N 
  N33      1.0000 0.93269  0.09615  0.65085  Biso   1.000  N 
  N34      1.0000 0.85577  0.86538  0.65085  Biso   1.000  N 
  N35      1.0000 0.54808  0.94231  0.79753  Biso   1.000  N 
  N36      1.0000 0.62500  0.17308  0.79753  Biso   1.000  N 
  N37      1.0000 0.70192  0.40385  0.79753  Biso   1.000  N 
  N38      1.0000 0.77885  0.63462  0.79753  Biso   1.000  N 
  N39      1.0000 0.85577  0.86538  0.79753  Biso   1.000  N 
  N40      1.0000 0.93269  0.09615  0.79753  Biso   1.000  N 
  N41      1.0000 0.00962  0.32692  0.79753  Biso   1.000  N 
  N42      1.0000 0.08654  0.55769  0.79753  Biso   1.000  N 
  N43      1.0000 0.16346  0.78846  0.79753  Biso   1.000  N 
  N44      1.0000 0.24038  0.01923  0.79753  Biso   1.000  N 
  N45      1.0000 0.31731  0.25000  0.79753  Biso   1.000  N 
  N46      1.0000 0.39423  0.48077  0.72420  Biso   1.000  N 
  N47      1.0000 0.47115  0.71154  0.72420  Biso   1.000  N 
  N48      1.0000 0.54808  0.94231  0.72420  Biso   1.000  N 
  N49      1.0000 0.70192  0.40385  0.72420  Biso   1.000  N 
  N50      1.0000 0.77885  0.63462  0.72420  Biso   1.000  N 
  N51      1.0000 0.85577  0.86538  0.72420  Biso   1.000  N 
  N52      1.0000 0.93269  0.09615  0.72420  Biso   1.000  N 
  N53      1.0000 0.00962  0.32692  0.72420  Biso   1.000  N 
  N54      1.0000 0.08654  0.55769  0.72420  Biso   1.000  N 
  N55      1.0000 0.16346  0.78846  0.72420  Biso   1.000  N 
  N56      1.0000 0.24038  0.01923  0.72420  Biso   1.000  N 
  N57      1.0000 0.31731  0.25000  0.72420  Biso   1.000  N 
  N58      1.0000 0.39423  0.48077  0.65085  Biso   1.000  N 
  N59      1.0000 0.47115  0.71154  0.65085  Biso   1.000  N 
  N60      1.0000 0.54808  0.94231  0.65085  Biso   1.000  N 
  N61      1.0000 0.62500  0.17308  0.65085  Biso   1.000  N 
  N62      1.0000 0.70192  0.40385  0.65085  Biso   1.000  N 
  N63      1.0000 0.77885  0.63462  0.65085  Biso   1.000  N 
  N64      1.0000 0.16346  0.78846  0.50417  Biso   1.000  N 
  N65      1.0000 0.24038  0.01923  0.50417  Biso   1.000  N 
  N66      1.0000 0.31731  0.25000  0.50417  Biso   1.000  N 
  N67      1.0000 0.58654  0.55769  0.79753  Biso   1.000  N 
  N68      1.0000 0.12500  0.17308  0.50417  Biso   1.000  N 
  N69      1.0000 0.20192  0.40385  0.50417  Biso   1.000  N 
  N70      1.0000 0.27885  0.63462  0.50417  Biso   1.000  N 
  N71      1.0000 0.58654  0.55769  0.57751  Biso   1.000  N 
  N72      1.0000 0.50962  0.32692  0.65085  Biso   1.000  N 
  N73      1.0000 0.43269  0.09615  0.65085  Biso   1.000  N 
  N74      1.0000 0.35577  0.86538  0.65085  Biso   1.000  N 
  N75      1.0000 0.27885  0.63462  0.65085  Biso   1.000  N 
  N76      1.0000 0.20192  0.40385  0.65085  Biso   1.000  N 
  N77      1.0000 0.12500  0.17308  0.65085  Biso   1.000  N 
  N78      1.0000 0.04808  0.94231  0.65085  Biso   1.000  N 
  N79      1.0000 0.97115  0.71154  0.65085  Biso   1.000  N 
  N80      1.0000 0.89423  0.48077  0.65085  Biso   1.000  N 
  N81      1.0000 0.81731  0.25000  0.65085  Biso   1.000  N 
  N82      1.0000 0.74038  0.01923  0.65085  Biso   1.000  N 
  N83      1.0000 0.66346  0.78846  0.65085  Biso   1.000  N 
  N84      1.0000 0.58654  0.55769  0.65085  Biso   1.000  N 
  N85      1.0000 0.50962  0.32692  0.72420  Biso   1.000  N 
  N86      1.0000 0.43269  0.09615  0.72420  Biso   1.000  N 
  N87      1.0000 0.35577  0.86538  0.72420  Biso   1.000  N 
  N88      1.0000 0.27885  0.63462  0.72420  Biso   1.000  N 
  N89      1.0000 0.20192  0.40385  0.72420  Biso   1.000  N 
  N90      1.0000 0.12500  0.17308  0.72420  Biso   1.000  N 
  N91      1.0000 0.04808  0.94231  0.72420  Biso   1.000  N 
  N92      1.0000 0.97115  0.71154  0.72420  Biso   1.000  N 
  N93      1.0000 0.89423  0.48077  0.72420  Biso   1.000  N 
  N94      1.0000 0.81731  0.25000  0.72420  Biso   1.000  N 
  N95      1.0000 0.43269  0.09615  0.50417  Biso   1.000  N 
  N96      1.0000 0.35577  0.86538  0.50417  Biso   1.000  N 
  N97      1.0000 0.04808  0.94231  0.50417  Biso   1.000  N 
  N98      1.0000 0.47115  0.71154  0.79753  Biso   1.000  N 
  N99      1.0000 0.97115  0.71154  0.50417  Biso   1.000  N 
  N100     1.0000 0.81731  0.25000  0.50417  Biso   1.000  N 
  N101     1.0000 0.66346  0.78846  0.79753  Biso   1.000  N 
  N102     1.0000 0.74038  0.01923  0.79753  Biso   1.000  N 
  N103     1.0000 0.81731  0.25000  0.79753  Biso   1.000  N 
  N104     1.0000 0.89423  0.48077  0.79753  Biso   1.000  N 
  N105     1.0000 0.97115  0.71154  0.79753  Biso   1.000  N 
  N106     1.0000 0.04808  0.94231  0.79753  Biso   1.000  N 
  N107     1.0000 0.12500  0.17308  0.79753  Biso   1.000  N 
  N108     1.0000 0.20192  0.40385  0.79753  Biso   1.000  N 
  N109     1.0000 0.27885  0.63462  0.79753  Biso   1.000  N 
  N110     1.0000 0.35577  0.86538  0.79753  Biso   1.000  N 
  N111     1.0000 0.43269  0.09615  0.79753  Biso   1.000  N 
  N112     1.0000 0.50962  0.32692  0.79753  Biso   1.000  N 
  N113     1.0000 0.58654  0.55769  0.72420  Biso   1.000  N 
  N114     1.0000 0.66346  0.78846  0.72420  Biso   1.000  N 
  N115     1.0000 0.74038  0.01923  0.72420  Biso   1.000  N 
  N116     1.0000 0.81731  0.25000  0.57751  Biso   1.000  N 
  N117     1.0000 0.89423  0.48077  0.57751  Biso   1.000  N 
  N118     1.0000 0.54808  0.44231  0.76087  Biso   1.000  N 
  N119     1.0000 0.97115  0.71154  0.57751  Biso   1.000  N 
  N120     1.0000 0.04808  0.94231  0.57751  Biso   1.000  N 
  N121     1.0000 0.12500  0.17308  0.57751  Biso   1.000  N 
  N122     1.0000 0.20192  0.40385  0.57751  Biso   1.000  N 
  N123     1.0000 0.27885  0.63462  0.57751  Biso   1.000  N 
  N124     1.0000 0.35577  0.86538  0.57751  Biso   1.000  N 
  N125     1.0000 0.43269  0.09615  0.57751  Biso   1.000  N 
  N126     1.0000 0.50962  0.32692  0.57751  Biso   1.000  N 
  N127     1.0000 0.58654  0.55769  0.50417  Biso   1.000  N 
  N128     1.0000 0.66346  0.78846  0.50417  Biso   1.000  N 
  N129     1.0000 0.74038  0.01923  0.50417  Biso   1.000  N 
  N130     1.0000 0.89423  0.48077  0.50417  Biso   1.000  N 
  N131     1.0000 0.39423  0.48077  0.79753  Biso   1.000  N 
  N132     1.0000 0.62500  0.17308  0.72420  Biso   1.000  N 
  N133     1.0000 0.27885  0.13462  0.46750  Biso   1.000  N 
  N134     1.0000 0.54808  0.44231  0.46750  Biso   1.000  N 
  N135     1.0000 0.62500  0.67308  0.46750  Biso   1.000  N 
  N136     1.0000 0.70192  0.90385  0.46750  Biso   1.000  N 
  N137     1.0000 0.77885  0.13462  0.46750  Biso   1.000  N 
  N138     1.0000 0.85577  0.36538  0.46750  Biso   1.000  N 
  N139     1.0000 0.93269  0.59615  0.46750  Biso   1.000  N 
  N140     1.0000 0.00962  0.82692  0.46750  Biso   1.000  N 
  N141     1.0000 0.08654  0.05769  0.46750  Biso   1.000  N 
  N142     1.0000 0.16346  0.28846  0.46750  Biso   1.000  N 
  N143     1.0000 0.24038  0.51923  0.46750  Biso   1.000  N 
  N144     1.0000 0.31731  0.75000  0.46750  Biso   1.000  N 
  N145     1.0000 0.39423  0.98077  0.46750  Biso   1.000  N 
  N146     1.0000 0.47115  0.21154  0.46750  Biso   1.000  N 
  N147     1.0000 0.43269  0.59615  0.76087  Biso   1.000  N 
  N148     1.0000 0.47115  0.21154  0.54085  Biso   1.000  N 
  N149     1.0000 0.50962  0.82692  0.76087  Biso   1.000  N 
  N150     1.0000 0.66346  0.28846  0.76087  Biso   1.000  N 
  N151     1.0000 0.74038  0.51923  0.76087  Biso   1.000  N 
  N152     1.0000 0.81731  0.75000  0.76087  Biso   1.000  N 
  N153     1.0000 0.35577  0.36538  0.46750  Biso   1.000  N 
  N154     1.0000 0.89423  0.98077  0.76087  Biso   1.000  N 
  N155     1.0000 0.97115  0.21154  0.76087  Biso   1.000  N 
  N156     1.0000 0.04808  0.44231  0.76087  Biso   1.000  N 
  N157     1.0000 0.62500  0.67308  0.68752  Biso   1.000  N 
  N158     1.0000 0.54808  0.44231  0.68752  Biso   1.000  N 
  N159     1.0000 0.47115  0.21154  0.76087  Biso   1.000  N 
  N160     1.0000 0.39423  0.98077  0.76087  Biso   1.000  N 
  N161     1.0000 0.31731  0.75000  0.76087  Biso   1.000  N 
  N162     1.0000 0.24038  0.51923  0.76087  Biso   1.000  N 
  N163     1.0000 0.16346  0.28846  0.76087  Biso   1.000  N 
  N164     1.0000 0.58654  0.05769  0.76087  Biso   1.000  N 
  N165     1.0000 0.39423  0.98077  0.54085  Biso   1.000  N 
  N166     1.0000 0.31731  0.75000  0.54085  Biso   1.000  N 
  N167     1.0000 0.24038  0.51923  0.54085  Biso   1.000  N 
  N168     1.0000 0.85577  0.36538  0.68752  Biso   1.000  N 
  N169     1.0000 0.93269  0.59615  0.68752  Biso   1.000  N 
  N170     1.0000 0.00962  0.82692  0.68752  Biso   1.000  N 
  N171     1.0000 0.08654  0.05769  0.68752  Biso   1.000  N 
  N172     1.0000 0.16346  0.28846  0.68752  Biso   1.000  N 
  N173     1.0000 0.24038  0.51923  0.68752  Biso   1.000  N 
  N174     1.0000 0.31731  0.75000  0.68752  Biso   1.000  N 
  N175     1.0000 0.39423  0.98077  0.68752  Biso   1.000  N 
  N176     1.0000 0.47115  0.21154  0.68752  Biso   1.000  N 
  N177     1.0000 0.54808  0.44231  0.61418  Biso   1.000  N 
  N178     1.0000 0.62500  0.67308  0.61418  Biso   1.000  N 
  N179     1.0000 0.70192  0.90385  0.61418  Biso   1.000  N 
  N180     1.0000 0.77885  0.13462  0.61418  Biso   1.000  N 
  N181     1.0000 0.85577  0.36538  0.61418  Biso   1.000  N 
  N182     1.0000 0.93269  0.59615  0.61418  Biso   1.000  N 
  N183     1.0000 0.00962  0.82692  0.61418  Biso   1.000  N 
  N184     1.0000 0.08654  0.05769  0.61418  Biso   1.000  N 
  N185     1.0000 0.16346  0.28846  0.54085  Biso   1.000  N 
  N186     1.0000 0.08654  0.05769  0.54085  Biso   1.000  N 
  N187     1.0000 0.00962  0.82692  0.54085  Biso   1.000  N 
  N188     1.0000 0.93269  0.59615  0.54085  Biso   1.000  N 
  N189     1.0000 0.85577  0.36538  0.54085  Biso   1.000  N 
  N190     1.0000 0.77885  0.13462  0.54085  Biso   1.000  N 
  N191     1.0000 0.08654  0.05769  0.76087  Biso   1.000  N 
  N192     1.0000 0.70192  0.90385  0.54085  Biso   1.000  N 
  N193     1.0000 0.54808  0.44231  0.54085  Biso   1.000  N 
  N194     1.0000 0.47115  0.21154  0.61418  Biso   1.000  N 
  N195     1.0000 0.39423  0.98077  0.61418  Biso   1.000  N 
  N196     1.0000 0.31731  0.75000  0.61418  Biso   1.000  N 
  N197     1.0000 0.24038  0.51923  0.61418  Biso   1.000  N 
  N198     1.0000 0.16346  0.28846  0.61418  Biso   1.000  N 
  N199     1.0000 0.62500  0.67308  0.54085  Biso   1.000  N 
  N200     1.0000 0.00962  0.82692  0.76087  Biso   1.000  N 
  N201     1.0000 0.93269  0.59615  0.76087  Biso   1.000  N 
  N202     1.0000 0.85577  0.36538  0.76087  Biso   1.000  N 
  N203     1.0000 0.97115  0.21154  0.61418  Biso   1.000  N 
  N204     1.0000 0.04808  0.44231  0.61418  Biso   1.000  N 
  N205     1.0000 0.12500  0.67308  0.61418  Biso   1.000  N 
  N206     1.0000 0.20192  0.90385  0.61418  Biso   1.000  N 
  N207     1.0000 0.27885  0.13462  0.61418  Biso   1.000  N 
  N208     1.0000 0.35577  0.36538  0.61418  Biso   1.000  N 
  N209     1.0000 0.43269  0.59615  0.54085  Biso   1.000  N 
  N210     1.0000 0.50962  0.82692  0.54085  Biso   1.000  N 
  N211     1.0000 0.58654  0.05769  0.54085  Biso   1.000  N 
  N212     1.0000 0.66346  0.28846  0.54085  Biso   1.000  N 
  N213     1.0000 0.74038  0.51923  0.54085  Biso   1.000  N 
  N214     1.0000 0.81731  0.75000  0.54085  Biso   1.000  N 
  N215     1.0000 0.89423  0.98077  0.54085  Biso   1.000  N 
  N216     1.0000 0.97115  0.21154  0.54085  Biso   1.000  N 
  N217     1.0000 0.89423  0.98077  0.61418  Biso   1.000  N 
  N218     1.0000 0.04808  0.44231  0.54085  Biso   1.000  N 
  N219     1.0000 0.20192  0.90385  0.54085  Biso   1.000  N 
  N220     1.0000 0.27885  0.13462  0.54085  Biso   1.000  N 
  N221     1.0000 0.35577  0.36538  0.54085  Biso   1.000  N 
  N222     1.0000 0.43269  0.59615  0.46750  Biso   1.000  N 
  N223     1.0000 0.50962  0.82692  0.46750  Biso   1.000  N 
  N224     1.0000 0.58654  0.05769  0.46750  Biso   1.000  N 
  N225     1.0000 0.66346  0.28846  0.46750  Biso   1.000  N 
  N226     1.0000 0.74038  0.51923  0.46750  Biso   1.000  N 
  N227     1.0000 0.81731  0.75000  0.46750  Biso   1.000  N 
  N228     1.0000 0.89423  0.98077  0.46750  Biso   1.000  N 
  N229     1.0000 0.97115  0.21154  0.46750  Biso   1.000  N 
  N230     1.0000 0.04808  0.44231  0.46750  Biso   1.000  N 
  N231     1.0000 0.12500  0.67308  0.46750  Biso   1.000  N 
  N232     1.0000 0.20192  0.90385  0.46750  Biso   1.000  N 
  N233     1.0000 0.12500  0.67308  0.54085  Biso   1.000  N 
  N234     1.0000 0.77885  0.13462  0.68752  Biso   1.000  N 
  N235     1.0000 0.81731  0.75000  0.61418  Biso   1.000  N 
  N236     1.0000 0.66346  0.28846  0.61418  Biso   1.000  N 
  N237     1.0000 0.77885  0.13462  0.76087  Biso   1.000  N 
  N238     1.0000 0.70192  0.90385  0.76087  Biso   1.000  N 
  N239     1.0000 0.12500  0.67308  0.76087  Biso   1.000  N 
  N240     1.0000 0.20192  0.90385  0.76087  Biso   1.000  N 
  N241     1.0000 0.27885  0.13462  0.76087  Biso   1.000  N 
  N242     1.0000 0.74038  0.51923  0.61418  Biso   1.000  N 
  N243     1.0000 0.43269  0.59615  0.68752  Biso   1.000  N 
  N244     1.0000 0.50962  0.82692  0.68752  Biso   1.000  N 
  N245     1.0000 0.58654  0.05769  0.68752  Biso   1.000  N 
  N246     1.0000 0.66346  0.28846  0.68752  Biso   1.000  N 
  N247     1.0000 0.74038  0.51923  0.68752  Biso   1.000  N 
  N248     1.0000 0.35577  0.36538  0.76087  Biso   1.000  N 
  N249     1.0000 0.89423  0.98077  0.68752  Biso   1.000  N 
  N250     1.0000 0.58654  0.05769  0.61418  Biso   1.000  N 
  N251     1.0000 0.50962  0.82692  0.61418  Biso   1.000  N 
  N252     1.0000 0.81731  0.75000  0.68752  Biso   1.000  N 
  N253     1.0000 0.43269  0.59615  0.61418  Biso   1.000  N 
  N254     1.0000 0.35577  0.36538  0.68752  Biso   1.000  N 
  N255     1.0000 0.70192  0.90385  0.68752  Biso   1.000  N 
  N256     1.0000 0.20192  0.90385  0.68752  Biso   1.000  N 
  N257     1.0000 0.12500  0.67308  0.68752  Biso   1.000  N 
  N258     1.0000 0.04808  0.44231  0.68752  Biso   1.000  N 
  N259     1.0000 0.97115  0.21154  0.68752  Biso   1.000  N 
  N260     1.0000 0.27885  0.13462  0.68752  Biso   1.000  N 
  Nb1      1.0000 0.87500  0.64583  0.23437  Biso   1.000  Nb
  Nb2      1.0000 0.37500  0.47917  0.23437  Biso   1.000  Nb
  Nb3      1.0000 0.37500  0.81250  0.23437  Biso   1.000  Nb
  Nb4      1.0000 0.87500  0.31250  0.28533  Biso   1.000  Nb
  Nb5      1.0000 0.87500  0.97917  0.28533  Biso   1.000  Nb
  Nb6      1.0000 0.87500  0.64583  0.28533  Biso   1.000  Nb
  Nb7      1.0000 0.37500  0.47917  0.28533  Biso   1.000  Nb
  Nb8      1.0000 0.37500  0.14583  0.28533  Biso   1.000  Nb
  Nb9      1.0000 0.37500  0.81250  0.28533  Biso   1.000  Nb
  Nb10     1.0000 0.37500  0.14583  0.23437  Biso   1.000  Nb
  Nb11     1.0000 0.37500  0.97917  0.42246  Biso   1.000  Nb
  Nb12     1.0000 0.37500  0.14583  0.41072  Biso   1.000  Nb
  Nb13     1.0000 0.87500  0.97917  0.23437  Biso   1.000  Nb
  Nb14     1.0000 0.37500  0.64583  0.42246  Biso   1.000  Nb
  Nb15     1.0000 0.87500  0.47917  0.42246  Biso   1.000  Nb
  Nb16     1.0000 0.87500  0.14583  0.42246  Biso   1.000  Nb
  Nb17     1.0000 0.87500  0.81250  0.42246  Biso   1.000  Nb
  Nb18     1.0000 0.37500  0.31250  0.34803  Biso   1.000  Nb
  Nb19     1.0000 0.37500  0.97917  0.34803  Biso   1.000  Nb
  Nb20     1.0000 0.37500  0.64583  0.34803  Biso   1.000  Nb
  Nb21     1.0000 0.87500  0.47917  0.34803  Biso   1.000  Nb
  Nb22     1.0000 0.87500  0.14583  0.34803  Biso   1.000  Nb
  Nb23     1.0000 0.87500  0.81250  0.34803  Biso   1.000  Nb
  Nb24     1.0000 0.87500  0.31250  0.35976  Biso   1.000  Nb
  Nb25     1.0000 0.87500  0.97917  0.35976  Biso   1.000  Nb
  Nb26     1.0000 0.87500  0.64583  0.35976  Biso   1.000  Nb
  Nb27     1.0000 0.37500  0.47917  0.35976  Biso   1.000  Nb
  Nb28     1.0000 0.37500  0.14583  0.35976  Biso   1.000  Nb
  Nb29     1.0000 0.37500  0.81250  0.35976  Biso   1.000  Nb
  Nb30     1.0000 0.87500  0.31250  0.41072  Biso   1.000  Nb
  Nb31     1.0000 0.87500  0.97917  0.41072  Biso   1.000  Nb
  Nb32     1.0000 0.87500  0.64583  0.41072  Biso   1.000  Nb
  Nb33     1.0000 0.37500  0.47917  0.41072  Biso   1.000  Nb
  Nb34     1.0000 0.37500  0.81250  0.41072  Biso   1.000  Nb
  Nb35     1.0000 0.87500  0.31250  0.23437  Biso   1.000  Nb
  Nb36     1.0000 0.37500  0.97917  0.17168  Biso   1.000  Nb
  Nb37     1.0000 0.87500  0.14583  0.22264  Biso   1.000  Nb
  Nb38     1.0000 0.87500  0.47917  0.09725  Biso   1.000  Nb
  Nb39     1.0000 0.87500  0.81250  0.09725  Biso   1.000  Nb
  Nb40     1.0000 0.87500  0.31250  0.10898  Biso   1.000  Nb
  Nb41     1.0000 0.87500  0.97917  0.10898  Biso   1.000  Nb
  Nb42     1.0000 0.87500  0.64583  0.10898  Biso   1.000  Nb
  Nb43     1.0000 0.37500  0.47917  0.10898  Biso   1.000  Nb
  Nb44     1.0000 0.37500  0.14583  0.10898  Biso   1.000  Nb
  Nb45     1.0000 0.37500  0.81250  0.10898  Biso   1.000  Nb
  Nb46     1.0000 0.87500  0.31250  0.15994  Biso   1.000  Nb
  Nb47     1.0000 0.87500  0.97917  0.15994  Biso   1.000  Nb
  Nb48     1.0000 0.87500  0.64583  0.15994  Biso   1.000  Nb
  Nb49     1.0000 0.37500  0.47917  0.15994  Biso   1.000  Nb
  Nb50     1.0000 0.37500  0.14583  0.15994  Biso   1.000  Nb
  Nb51     1.0000 0.37500  0.81250  0.15994  Biso   1.000  Nb
  Nb52     1.0000 0.87500  0.81250  0.22264  Biso   1.000  Nb
  Nb53     1.0000 0.37500  0.64583  0.09725  Biso   1.000  Nb
  Nb54     1.0000 0.37500  0.97917  0.09725  Biso   1.000  Nb
  Nb55     1.0000 0.87500  0.14583  0.09725  Biso   1.000  Nb
  Nb56     1.0000 0.87500  0.81250  0.17168  Biso   1.000  Nb
  Nb57     1.0000 0.87500  0.47917  0.22264  Biso   1.000  Nb
  Nb58     1.0000 0.37500  0.64583  0.22264  Biso   1.000  Nb
  Nb59     1.0000 0.37500  0.97917  0.22264  Biso   1.000  Nb
  Nb60     1.0000 0.37500  0.31250  0.22264  Biso   1.000  Nb
  Nb61     1.0000 0.37500  0.31250  0.09725  Biso   1.000  Nb
  Nb62     1.0000 0.87500  0.14583  0.29707  Biso   1.000  Nb
  Nb63     1.0000 0.87500  0.47917  0.29707  Biso   1.000  Nb
  Nb64     1.0000 0.37500  0.64583  0.29707  Biso   1.000  Nb
  Nb65     1.0000 0.87500  0.81250  0.29707  Biso   1.000  Nb
  Nb66     1.0000 0.37500  0.31250  0.29707  Biso   1.000  Nb
  Nb67     1.0000 0.37500  0.31250  0.17168  Biso   1.000  Nb
  Nb68     1.0000 0.37500  0.31250  0.42246  Biso   1.000  Nb
  Nb69     1.0000 0.37500  0.64583  0.17168  Biso   1.000  Nb
  Nb70     1.0000 0.87500  0.47917  0.17168  Biso   1.000  Nb
  Nb71     1.0000 0.87500  0.14583  0.17168  Biso   1.000  Nb
  Nb72     1.0000 0.37500  0.97917  0.29707  Biso   1.000  Nb
  Te1      1.0000 0.76230  0.56190  0.38524  Biso   1.000  Te
  Te2      1.0000 0.98770  0.39643  0.38524  Biso   1.000  Te
  Te3      1.0000 0.98770  0.06310  0.38524  Biso   1.000  Te
  Te4      1.0000 0.48770  0.06190  0.38524  Biso   1.000  Te
  Te5      1.0000 0.48770  0.39523  0.38524  Biso   1.000  Te
  Te6      1.0000 0.48770  0.72857  0.38524  Biso   1.000  Te
  Te7      1.0000 0.76230  0.89523  0.38524  Biso   1.000  Te
  Te8      1.0000 0.26230  0.22977  0.38524  Biso   1.000  Te
  Te9      1.0000 0.98770  0.72977  0.38524  Biso   1.000  Te
  Te10     1.0000 0.76230  0.22857  0.38524  Biso   1.000  Te
  Te11     1.0000 0.98770  0.39523  0.32255  Biso   1.000  Te
  Te12     1.0000 0.76230  0.89643  0.32255  Biso   1.000  Te
  Te13     1.0000 0.21430  0.06250  0.35390  Biso   1.000  Te
  Te14     1.0000 0.21430  0.39583  0.35390  Biso   1.000  Te
  Te15     1.0000 0.03570  0.56250  0.41659  Biso   1.000  Te
  Te16     1.0000 0.03570  0.89583  0.41659  Biso   1.000  Te
  Te17     1.0000 0.03570  0.22917  0.41659  Biso   1.000  Te
  Te18     1.0000 0.71430  0.72917  0.41659  Biso   1.000  Te
  Te19     1.0000 0.21430  0.72917  0.35390  Biso   1.000  Te
  Te20     1.0000 0.71430  0.06250  0.41659  Biso   1.000  Te
  Te21     1.0000 0.21430  0.72917  0.41659  Biso   1.000  Te
  Te22     1.0000 0.21430  0.06250  0.41659  Biso   1.000  Te
  Te23     1.0000 0.21430  0.39583  0.41659  Biso   1.000  Te
  Te24     1.0000 0.53570  0.56250  0.41659  Biso   1.000  Te
  Te25     1.0000 0.53570  0.89583  0.41659  Biso   1.000  Te
  Te26     1.0000 0.53570  0.22917  0.41659  Biso   1.000  Te
  Te27     1.0000 0.71430  0.39583  0.41659  Biso   1.000  Te
  Te28     1.0000 0.53570  0.22917  0.35390  Biso   1.000  Te
  Te29     1.0000 0.53570  0.89583  0.35390  Biso   1.000  Te
  Te30     1.0000 0.53570  0.56250  0.35390  Biso   1.000  Te
  Te31     1.0000 0.76230  0.22977  0.32255  Biso   1.000  Te
  Te32     1.0000 0.98770  0.72857  0.32255  Biso   1.000  Te
  Te33     1.0000 0.98770  0.06190  0.32255  Biso   1.000  Te
  Te34     1.0000 0.48770  0.72977  0.32255  Biso   1.000  Te
  Te35     1.0000 0.48770  0.06310  0.32255  Biso   1.000  Te
  Te36     1.0000 0.48770  0.39643  0.32255  Biso   1.000  Te
  Te37     1.0000 0.26230  0.56190  0.32255  Biso   1.000  Te
  Te38     1.0000 0.26230  0.89523  0.32255  Biso   1.000  Te
  Te39     1.0000 0.26230  0.22857  0.32255  Biso   1.000  Te
  Te40     1.0000 0.71430  0.72917  0.35390  Biso   1.000  Te
  Te41     1.0000 0.71430  0.06250  0.35390  Biso   1.000  Te
  Te42     1.0000 0.71430  0.39583  0.35390  Biso   1.000  Te
  Te43     1.0000 0.03570  0.56250  0.35390  Biso   1.000  Te
  Te44     1.0000 0.03570  0.89583  0.35390  Biso   1.000  Te
  Te45     1.0000 0.03570  0.22917  0.35390  Biso   1.000  Te
  Te46     1.0000 0.76230  0.56310  0.32255  Biso   1.000  Te
  Te47     1.0000 0.26230  0.56310  0.25985  Biso   1.000  Te
  Te48     1.0000 0.53570  0.56250  0.16581  Biso   1.000  Te
  Te49     1.0000 0.26230  0.22977  0.25985  Biso   1.000  Te
  Te50     1.0000 0.26230  0.22857  0.07177  Biso   1.000  Te
  Te51     1.0000 0.26230  0.89523  0.07177  Biso   1.000  Te
  Te52     1.0000 0.26230  0.56190  0.07177  Biso   1.000  Te
  Te53     1.0000 0.48770  0.39643  0.07177  Biso   1.000  Te
  Te54     1.0000 0.48770  0.06310  0.07177  Biso   1.000  Te
  Te55     1.0000 0.48770  0.72977  0.07177  Biso   1.000  Te
  Te56     1.0000 0.98770  0.39523  0.07177  Biso   1.000  Te
  Te57     1.0000 0.98770  0.06190  0.07177  Biso   1.000  Te
  Te58     1.0000 0.98770  0.72857  0.07177  Biso   1.000  Te
  Te59     1.0000 0.71430  0.72917  0.10311  Biso   1.000  Te
  Te60     1.0000 0.76230  0.22977  0.07177  Biso   1.000  Te
  Te61     1.0000 0.76230  0.56310  0.07177  Biso   1.000  Te
  Te62     1.0000 0.76230  0.22857  0.13446  Biso   1.000  Te
  Te63     1.0000 0.76230  0.89523  0.13446  Biso   1.000  Te
  Te64     1.0000 0.76230  0.56190  0.13446  Biso   1.000  Te
  Te65     1.0000 0.98770  0.39643  0.13446  Biso   1.000  Te
  Te66     1.0000 0.98770  0.06310  0.13446  Biso   1.000  Te
  Te67     1.0000 0.98770  0.72977  0.13446  Biso   1.000  Te
  Te68     1.0000 0.48770  0.39523  0.13446  Biso   1.000  Te
  Te69     1.0000 0.48770  0.06190  0.13446  Biso   1.000  Te
  Te70     1.0000 0.76230  0.89643  0.07177  Biso   1.000  Te
  Te71     1.0000 0.48770  0.72857  0.13446  Biso   1.000  Te
  Te72     1.0000 0.71430  0.06250  0.10311  Biso   1.000  Te
  Te73     1.0000 0.03570  0.56250  0.10311  Biso   1.000  Te
  Te74     1.0000 0.26230  0.89643  0.38524  Biso   1.000  Te
  Te75     1.0000 0.53570  0.22917  0.16581  Biso   1.000  Te
  Te76     1.0000 0.53570  0.89583  0.16581  Biso   1.000  Te
  Te77     1.0000 0.21430  0.39583  0.16581  Biso   1.000  Te
  Te78     1.0000 0.21430  0.06250  0.16581  Biso   1.000  Te
  Te79     1.0000 0.21430  0.72917  0.16581  Biso   1.000  Te
  Te80     1.0000 0.71430  0.39583  0.16581  Biso   1.000  Te
  Te81     1.0000 0.71430  0.06250  0.16581  Biso   1.000  Te
  Te82     1.0000 0.71430  0.72917  0.16581  Biso   1.000  Te
  Te83     1.0000 0.71430  0.39583  0.10311  Biso   1.000  Te
  Te84     1.0000 0.03570  0.22917  0.16581  Biso   1.000  Te
  Te85     1.0000 0.03570  0.56250  0.16581  Biso   1.000  Te
  Te86     1.0000 0.21430  0.39583  0.10311  Biso   1.000  Te
  Te87     1.0000 0.21430  0.06250  0.10311  Biso   1.000  Te
  Te88     1.0000 0.21430  0.72917  0.10311  Biso   1.000  Te
  Te89     1.0000 0.53570  0.22917  0.10311  Biso   1.000  Te
  Te90     1.0000 0.53570  0.89583  0.10311  Biso   1.000  Te
  Te91     1.0000 0.53570  0.56250  0.10311  Biso   1.000  Te
  Te92     1.0000 0.03570  0.22917  0.10311  Biso   1.000  Te
  Te93     1.0000 0.03570  0.89583  0.10311  Biso   1.000  Te
  Te94     1.0000 0.03570  0.89583  0.16581  Biso   1.000  Te
  Te95     1.0000 0.26230  0.22977  0.13446  Biso   1.000  Te
  Te96     1.0000 0.26230  0.89643  0.13446  Biso   1.000  Te
  Te97     1.0000 0.26230  0.56310  0.13446  Biso   1.000  Te
  Te98     1.0000 0.26230  0.89523  0.19716  Biso   1.000  Te
  Te99     1.0000 0.26230  0.56190  0.19716  Biso   1.000  Te
  Te100    1.0000 0.48770  0.39643  0.19716  Biso   1.000  Te
  Te101    1.0000 0.48770  0.06310  0.19716  Biso   1.000  Te
  Te102    1.0000 0.48770  0.72977  0.19716  Biso   1.000  Te
  Te103    1.0000 0.98770  0.39523  0.19716  Biso   1.000  Te
  Te104    1.0000 0.98770  0.06190  0.19716  Biso   1.000  Te
  Te105    1.0000 0.98770  0.72857  0.19716  Biso   1.000  Te
  Te106    1.0000 0.76230  0.22977  0.19716  Biso   1.000  Te
  Te107    1.0000 0.26230  0.22857  0.19716  Biso   1.000  Te
  Te108    1.0000 0.76230  0.89643  0.19716  Biso   1.000  Te
  Te109    1.0000 0.76230  0.22857  0.25985  Biso   1.000  Te
  Te110    1.0000 0.76230  0.89523  0.25985  Biso   1.000  Te
  Te111    1.0000 0.76230  0.56190  0.25985  Biso   1.000  Te
  Te112    1.0000 0.98770  0.39643  0.25985  Biso   1.000  Te
  Te113    1.0000 0.98770  0.06310  0.25985  Biso   1.000  Te
  Te114    1.0000 0.98770  0.72977  0.25985  Biso   1.000  Te
  Te115    1.0000 0.48770  0.39523  0.25985  Biso   1.000  Te
  Te116    1.0000 0.48770  0.06190  0.25985  Biso   1.000  Te
  Te117    1.0000 0.48770  0.72857  0.25985  Biso   1.000  Te
  Te118    1.0000 0.76230  0.56310  0.19716  Biso   1.000  Te
  Te119    1.0000 0.71430  0.72917  0.22850  Biso   1.000  Te
  Te120    1.0000 0.71430  0.06250  0.22850  Biso   1.000  Te
  Te121    1.0000 0.71430  0.39583  0.22850  Biso   1.000  Te
  Te122    1.0000 0.53570  0.22917  0.29120  Biso   1.000  Te
  Te123    1.0000 0.53570  0.89583  0.29120  Biso   1.000  Te
  Te124    1.0000 0.53570  0.56250  0.29120  Biso   1.000  Te
  Te125    1.0000 0.21430  0.39583  0.29120  Biso   1.000  Te
  Te126    1.0000 0.21430  0.06250  0.29120  Biso   1.000  Te
  Te127    1.0000 0.21430  0.72917  0.29120  Biso   1.000  Te
  Te128    1.0000 0.71430  0.39583  0.29120  Biso   1.000  Te
  Te129    1.0000 0.71430  0.06250  0.29120  Biso   1.000  Te
  Te130    1.0000 0.71430  0.72917  0.29120  Biso   1.000  Te
  Te131    1.0000 0.03570  0.22917  0.29120  Biso   1.000  Te
  Te132    1.0000 0.03570  0.89583  0.29120  Biso   1.000  Te
  Te133    1.0000 0.03570  0.56250  0.29120  Biso   1.000  Te
  Te134    1.0000 0.21430  0.39583  0.22850  Biso   1.000  Te
  Te135    1.0000 0.21430  0.06250  0.22850  Biso   1.000  Te
  Te136    1.0000 0.21430  0.72917  0.22850  Biso   1.000  Te
  Te137    1.0000 0.53570  0.22917  0.22850  Biso   1.000  Te
  Te138    1.0000 0.53570  0.89583  0.22850  Biso   1.000  Te
  Te139    1.0000 0.53570  0.56250  0.22850  Biso   1.000  Te
  Te140    1.0000 0.03570  0.22917  0.22850  Biso   1.000  Te
  Te141    1.0000 0.03570  0.89583  0.22850  Biso   1.000  Te
  Te142    1.0000 0.03570  0.56250  0.22850  Biso   1.000  Te
  Te143    1.0000 0.26230  0.89643  0.25985  Biso   1.000  Te
  Te144    1.0000 0.26230  0.56310  0.38524  Biso   1.000  Te
